57

C 37.7352 0.1159 2.11357 
C 35.3109 0.1159 2.11191 
C 36.5219 0.1159 4.20093 
C 38.9463 0.1159 4.20244 
C 40.1596 0.1159 2.11578 
C 32.8866 0.1159 2.11053 
C 34.0977 0.1159 4.19953 
C 35.3087 0.1159 6.28856 
C 32.8846 0.1159 6.28727 
C 31.6735 0.1159 4.19827 
C 30.4622 0.1159 2.10937 
C 29.2493 0.1159 4.19723 
C 30.4606 0.1159 6.28611 
C 28.0378 0.1159 2.10847 
Be 27.1924 0.1159 4.19819 
C 28.0367 0.1159 6.28521 
N 25.6226 0.1159 2.5248 
N 25.6221 0.1159 5.90529 
Be 24.0467 0.1159 4.22072 
C 23.1887 0.1159 6.28446 
C 21.9766 0.1159 4.19613 
C 23.1888 0.1159 2.10774 
C 20.7647 0.1159 6.28468 
C 19.5524 0.1159 4.19653 
C 20.7643 0.1159 2.10795 
C 18.3399 0.1159 2.10852 
C 17.1282 0.1159 4.19724 
C 18.3407 0.1159 6.28523 
C 15.9155 0.1159 2.10938 
C 14.704 0.1159 4.19817 
C 15.9167 0.1159 6.28604 
C 13.4911 0.1159 2.11048 
C 12.2796 0.1159 4.19921 
C 13.4926 0.1159 6.28692 
C 11.0684 0.1159 6.28774 
C 9.85487 0.1159 4.20029 
C 11.0668 0.1159 2.11178 
C 8.64407 0.1159 6.28874 
C 7.42938 0.1159 4.20135 
C 8.6424 0.1159 2.11292 
C 6.21821 0.1159 2.1119 
C 5.00369 0.1159 4.20238 
C 6.21991 0.1159 6.29185 
C 3.79766 0.1159 2.11182 
C 2.58755 0.1159 4.20338 
C 3.79936 0.1159 6.29394 
C 37.7328 0.1159 6.28981 
C 40.1569 0.1159 6.29072 
C 41.3715 0.1159 4.20406 
C 42.5815 0.1159 6.29127 
C 43.799 0.1159 4.20578 
C 42.5843 0.1159 2.11856 
C 45.0065 0.1159 6.29436 
C 45.0094 0.1159 2.11902 
C 46.2318 0.1159 4.20761 
C 47.4207 0.1159 6.31491 
C 47.4238 0.1159 2.10217 
